Version 4
SHEET 1 2652 680
WIRE 112 80 80 80
WIRE 160 80 112 80
WIRE 208 80 160 80
WIRE 320 80 288 80
WIRE 400 80 320 80
WIRE 576 80 496 80
WIRE 656 80 576 80
WIRE 736 80 656 80
WIRE 784 80 736 80
WIRE 800 80 784 80
WIRE 576 96 576 80
WIRE -144 128 -176 128
WIRE -112 128 -144 128
WIRE 320 128 320 80
WIRE -176 144 -176 128
WIRE 784 160 784 144
WIRE 160 192 160 80
WIRE 272 192 160 192
WIRE 416 192 416 128
WIRE 416 192 368 192
WIRE 416 256 416 192
WIRE 416 352 416 336
FLAG 112 80 53.5
FLAG -176 224 0
FLAG -144 128 53.5
FLAG 576 160 0
FLAG 656 160 0
FLAG 784 160 0
FLAG 736 80 OUT
FLAG 416 352 0
SYMBOL pmos 496 128 M270
WINDOW 0 63 73 VLeft 2
WINDOW 3 89 95 VLeft 2
SYMATTR InstName M2
SYMATTR Value IRF9640
SYMBOL res 192 96 R270
WINDOW 0 32 56 VTop 2
WINDOW 3 0 56 VBottom 2
SYMATTR InstName R9
SYMATTR Value 0.1667
SYMBOL voltage -176 128 R0
WINDOW 3 -23 152 Left 2
WINDOW 123 0 0 Left 0
WINDOW 39 24 124 Left 2
SYMATTR Value PULSE(0 53.5 3m 0.1m 0.1m 50)
SYMATTR SpiceLine Rser=0.1
SYMATTR InstName V2
SYMBOL pnp 368 128 R90
SYMATTR InstName Q4
SYMATTR Value 2N5401
SYMBOL res 400 240 R0
SYMATTR InstName R17
SYMATTR Value 20k
SYMBOL cap 560 96 R0
WINDOW 3 -28 -41 Left 2
SYMATTR Value 10000µ
SYMATTR InstName C5
SYMATTR SpiceLine V=100 Rser=.1
SYMBOL res 640 64 R0
WINDOW 3 -19 131 Left 2
SYMATTR Value 1k
SYMATTR InstName R18
SYMBOL load 768 80 R0
WINDOW 3 -128 152 Invisible 2
WINDOW 123 0 0 Left 0
WINDOW 39 0 0 Left 0
SYMATTR Value PULSE(0.1 10 1.75 0.005 0.005 0.005 0.2)
SYMATTR InstName I2
TEXT -192 328 Left 2 !.tran 3000m
